22244
  -OEChem-03102303063D

 23 24  0     0  0  0  0  0  0999 V2000
   -2.8472    1.9089    0.5129 O   0  0  0  0  0  0  0  0  0  0  0  0
   -3.7129    0.0754   -0.5144 O   0  0  0  0  0  0  0  0  0  0  0  0
   -2.1613   -2.1378    0.1182 N   0  0  0  0  0  0  0  0  0  0  0  0
    1.0115    0.6416   -0.0470 C   0  0  0  0  0  0  0  0  0  0  0  0
    1.2811   -0.7454    0.0328 C   0  0  0  0  0  0  0  0  0  0  0  0
   -1.3745    0.1676   -0.0169 C   0  0  0  0  0  0  0  0  0  0  0  0
   -0.3219    1.0817   -0.0710 C   0  0  0  0  0  0  0  0  0  0  0  0
    0.2091   -1.6513    0.0863 C   0  0  0  0  0  0  0  0  0  0  0  0
   -1.1095   -1.1964    0.0620 C   0  0  0  0  0  0  0  0  0  0  0  0
    2.0834    1.5475   -0.1006 C   0  0  0  0  0  0  0  0  0  0  0  0
    2.6143   -1.1858    0.0564 C   0  0  0  0  0  0  0  0  0  0  0  0
    3.4021    1.0922   -0.0756 C   0  0  0  0  0  0  0  0  0  0  0  0
    3.6670   -0.2718    0.0027 C   0  0  0  0  0  0  0  0  0  0  0  0
   -2.7413    0.6735   -0.0458 C   0  0  0  0  0  0  0  0  0  0  0  0
   -0.5182    2.1499   -0.1475 H   0  0  0  0  0  0  0  0  0  0  0  0
    0.4078   -2.7203    0.1480 H   0  0  0  0  0  0  0  0  0  0  0  0
    1.9004    2.6183   -0.1621 H   0  0  0  0  0  0  0  0  0  0  0  0
    2.8451   -2.2473    0.1172 H   0  0  0  0  0  0  0  0  0  0  0  0
    4.2220    1.8033   -0.1174 H   0  0  0  0  0  0  0  0  0  0  0  0
    4.6937   -0.6255    0.0220 H   0  0  0  0  0  0  0  0  0  0  0  0
   -3.1263   -1.8378    0.1138 H   0  0  0  0  0  0  0  0  0  0  0  0
   -1.9479   -3.1249    0.1771 H   0  0  0  0  0  0  0  0  0  0  0  0
   -3.7695    2.2424    0.4897 H   0  0  0  0  0  0  0  0  0  0  0  0
  1 14  1  0  0  0  0
  1 23  1  0  0  0  0
  2 14  2  0  0  0  0
  3  9  1  0  0  0  0
  3 21  1  0  0  0  0
  3 22  1  0  0  0  0
  4  5  1  0  0  0  0
  4  7  1  0  0  0  0
  4 10  2  0  0  0  0
  5  8  1  0  0  0  0
  5 11  2  0  0  0  0
  6  7  2  0  0  0  0
  6  9  1  0  0  0  0
  6 14  1  0  0  0  0
  7 15  1  0  0  0  0
  8  9  2  0  0  0  0
  8 16  1  0  0  0  0
 10 12  1  0  0  0  0
 10 17  1  0  0  0  0
 11 13  1  0  0  0  0
 11 18  1  0  0  0  0
 12 13  2  0  0  0  0
 12 19  1  0  0  0  0
 13 20  1  0  0  0  0
M  END
> <PUBCHEM_COMPOUND_CID>
22244

> <PUBCHEM_CONFORMER_RMSD>
0.4

> <PUBCHEM_CONFORMER_DIVERSEORDER>
2
3
1

> <PUBCHEM_MMFF94_PARTIAL_CHARGES>
21
1 -0.65
10 -0.15
11 -0.15
12 -0.15
13 -0.15
14 0.63
15 0.15
16 0.15
17 0.15
18 0.15
19 0.15
2 -0.57
20 0.15
21 0.4
22 0.4
23 0.5
3 -0.9
6 0.09
7 -0.15
8 -0.15
9 0.1

> <PUBCHEM_EFFECTIVE_ROTOR_COUNT>
1

> <PUBCHEM_PHARMACOPHORE_FEATURES>
7
1 1 acceptor
1 2 acceptor
1 3 cation
1 3 donor
3 1 2 14 anion
6 4 5 10 11 12 13 rings
6 4 5 6 7 8 9 rings

> <PUBCHEM_HEAVY_ATOM_COUNT>
14

> <PUBCHEM_ATOM_DEF_STEREO_COUNT>
0

> <PUBCHEM_ATOM_UDEF_STEREO_COUNT>
0

> <PUBCHEM_BOND_DEF_STEREO_COUNT>
0

> <PUBCHEM_BOND_UDEF_STEREO_COUNT>
0

> <PUBCHEM_ISOTOPIC_ATOM_COUNT>
0

> <PUBCHEM_COMPONENT_COUNT>
1

> <PUBCHEM_CACTVS_TAUTO_COUNT>
2

> <PUBCHEM_CONFORMER_ID>
000056E400000002

> <PUBCHEM_MMFF94_ENERGY>
55.2937

> <PUBCHEM_FEATURE_SELFOVERLAP>
35.604

> <PUBCHEM_SHAPE_FINGERPRINT>
10608611 8 18411697729217164104
10967382 1 18410011005328457070
10980938 120 18335138635859146418
11132069 177 18410005555215457616
11471102 20 18409162182351905148
12251169 10 18408038503038002576
12491281 212 18409739451641927840
12932764 1 17488744626467655830
13140716 1 18408885139860558994
13380535 21 18337121123974983406
13380535 76 18411135831325014982
13897977 150 18410008857807963836
14144814 61 18410012113308862680
14325111 11 18410575084747695820
14790565 3 15450325127904622479
14897335 6 18410288125102834590
14911166 2 18410296869935908838
15442244 35 18338515214635583458
15536298 74 18342737416843385974
15775835 57 18333735719199145108
16945 1 18336546002036798410
18186145 218 18340207366993421212
193761 8 17977666742302017268
20201158 50 18412826867618895302
20510252 161 18198065974103699248
20871998 184 18200600318557645327
21267235 1 18410301310684478026
21501502 16 18336546113874727206
2334 1 18265335186576335906
23402539 116 18271796930909042869
23402655 69 18341602686436570317
23463225 33 18335137575091869002
23552423 10 18188209922155794254
23559900 14 18343025510997962532
2748010 2 18337957899526234702
5104073 3 18410292518769963803
528886 8 18410287017206987650
53812653 166 18341608252624417504
6333449 129 18411136973859947839
69090 78 18413102870823056191
7364860 26 18341048498279976230
74978 22 18410295826137497280
8809292 202 18333454252812674522
9709674 26 18342461447587916446

> <PUBCHEM_SHAPE_MULTIPOLES>
271.39
5.78
1.96
0.63
0.08
0.27
0
-1.15
-0.19
0.47
0.13
0.04
-0.03
-0.16

> <PUBCHEM_SHAPE_SELFOVERLAP>
599.611

> <PUBCHEM_SHAPE_VOLUME>
146.3

> <PUBCHEM_COORDINATE_TYPE>
2
5
10

$$$$
